@<TRIPOS>MOLECULE
Displayed atoms
 14 13 0 0 0
SMALL
USER_CHARGES

@<TRIPOS>ATOM
      1 N1         -0.2739   -1.4755   -0.7170 N.4     1  UNK111111111111111111111111    0.0000
      2 C2          0.4494   -0.8508    0.3851 C.3     1  UNK111111111111111111111111    0.0000
      3 C3         -0.1106    0.5706    0.3854 C.2     1  UNK111111111111111111111111    0.0000
      4 C4          1.9859   -0.9706    0.2094 C.3     1  UNK111111111111111111111111    0.0000
      5 O5          2.6928   -0.3759    1.2766 O.3     1  UNK111111111111111111111111    0.0000
      6 O6         -1.3498    0.6531    0.2284 O.co2   1  UNK111111111111111111111111    0.0000
      7 O7          0.6872    1.5249    0.4339 O.co2   1  UNK111111111111111111111111    0.0000
      8 H8         -1.2076   -1.0963   -0.5801 H       1  UNK111111111111111111111111    0.0000
      9 H9          0.0827   -1.0981   -1.5797 H       1  UNK111111111111111111111111    0.0000
     10 H10        -0.2488   -2.4791   -0.6743 H       1  UNK111111111111111111111111    0.0000
     11 H11         0.1453   -1.3255    1.3187 H       1  UNK111111111111111111111111    0.0000
     12 H12         2.3031   -0.4832   -0.7148 H       1  UNK111111111111111111111111    0.0000
     13 H13         2.2885   -2.0160    0.1426 H       1  UNK111111111111111111111111    0.0000
     14 H14         2.3793    0.5309    1.3273 H       1  UNK111111111111111111111111    0.0000
@<TRIPOS>BOND
     1     1     2    1
     2     1     8    1
     3     1     9    1
     4     1    10    1
     5     2     3    1
     6     2     4    1
     7     2    11    1
     8     3     6   ar
     9     3     7   ar
    10     4     5    1
    11     4    12    1
    12     4    13    1
    13     5    14    1
