@<TRIPOS>MOLECULE
Displayed atoms
 20 20 0 0 0
SMALL
USER_CHARGES

@<TRIPOS>ATOM
      1 C1         -0.1935   -2.0539    0.8879 C.3     1  UNK111111111111111111111    0.0000
      2 C2          0.0543   -2.2668   -0.6113 C.3     1  UNK111111111111111111111    0.0000
      3 C3          0.7879   -1.0118   -1.1214 C.3     1  UNK111111111111111111111    0.0000
      4 C4          0.9462   -0.0692    0.1010 C.3     1  UNK111111111111111111111    0.0000
      5 C5          0.8480   -1.0202    1.3169 C.3     1  UNK111111111111111111111    0.0000
      6 N6          2.1708    0.7167    0.0789 N.4     1  UNK111111111111111111111    0.0000
      7 C7         -0.0452    1.0957    0.0992 C.2     1  UNK111111111111111111111    0.0000
      8 O8         -0.0845    1.7513   -0.9634 O.co2   1  UNK111111111111111111111    0.0000
      9 O9         -0.4475    1.4963    1.2067 O.co2   1  UNK111111111111111111111    0.0000
     10 H10        -0.1343   -2.9794    1.4619 H       1  UNK111111111111111111111    0.0000
     11 H11        -1.1925   -1.6377    1.0383 H       1  UNK111111111111111111111    0.0000
     12 H12        -0.8830   -2.4326   -1.1448 H       1  UNK111111111111111111111    0.0000
     13 H13         0.6751   -3.1494   -0.7699 H       1  UNK111111111111111111111    0.0000
     14 H14         0.2310   -0.5610   -1.9454 H       1  UNK111111111111111111111    0.0000
     15 H15         1.7575   -1.2967   -1.5300 H       1  UNK111111111111111111111    0.0000
     16 H16         0.5689   -0.5365    2.2545 H       1  UNK111111111111111111111    0.0000
     17 H17         1.8017   -1.5196    1.4909 H       1  UNK111111111111111111111    0.0000
     18 H18         2.9963    0.1544   -0.0225 H       1  UNK111111111111111111111    0.0000
     19 H19         2.0193    1.3533   -0.6941 H       1  UNK111111111111111111111    0.0000
     20 H20         2.1567    1.2651    0.9256 H       1  UNK111111111111111111111    0.0000
@<TRIPOS>BOND
     1     1     2    1
     2     1     5    1
     3     1    10    1
     4     1    11    1
     5     2     3    1
     6     2    12    1
     7     2    13    1
     8     3     4    1
     9     3    14    1
    10     3    15    1
    11     4     5    1
    12     4     6    1
    13     4     7    1
    14     5    16    1
    15     5    17    1
    16     6    18    1
    17     6    19    1
    18     6    20    1
    19     7     8   ar
    20     7     9   ar
