@<TRIPOS>MOLECULE
Displayed atoms
 13 12 0 0 0
SMALL
USER_CHARGES

@<TRIPOS>ATOM
      1 N1         -0.5088   -0.2689    0.3609 N.4     1  UNK111111111111111111111    0.0000
      2 C2          0.9366   -0.4123    0.4379 C.3     1  UNK111111111111111111111    0.0000
      3 C3          1.2986    0.3339   -0.8227 C.2     1  UNK111111111111111111111    0.0000
      4 C4          1.3927   -1.8873    0.4302 C.3     1  UNK111111111111111111111    0.0000
      5 O5          1.4576    1.5577   -0.6703 O.co2   1  UNK111111111111111111111    0.0000
      6 O6          1.0604   -0.2591   -1.8937 O.co2   1  UNK111111111111111111111    0.0000
      7 H7         -0.6734    0.7280    0.3448 H       1  UNK111111111111111111111    0.0000
      8 H8         -0.7410   -0.6236   -0.5580 H       1  UNK111111111111111111111    0.0000
      9 H9         -0.9925   -0.7384    1.1046 H       1  UNK111111111111111111111    0.0000
     10 H10         1.3252    0.1038    1.3178 H       1  UNK111111111111111111111    0.0000
     11 H11         2.4811   -1.9421    0.3799 H       1  UNK111111111111111111111    0.0000
     12 H12         1.0799   -2.4078    1.3347 H       1  UNK111111111111111111111    0.0000
     13 H13         1.0054   -2.4403   -0.4277 H       1  UNK111111111111111111111    0.0000
@<TRIPOS>BOND
     1     1     2    1
     2     1     7    1
     3     1     8    1
     4     1     9    1
     5     2     3    1
     6     2     4    1
     7     2    10    1
     8     3     5   ar
     9     3     6   ar
    10     4    11    1
    11     4    12    1
    12     4    13    1
