@<TRIPOS>MOLECULE
Displayed atoms
 14 14 0 0 0
SMALL
USER_CHARGES

@<TRIPOS>ATOM
      1 O1         -1.0096    0.3424    0.4368 O.3     1  UNK111111111111111111    0.0000
      2 C2          0.1807    0.5114   -0.3308 C.3     1  UNK111111111111111111    0.0000
      3 C3          0.7584   -0.9104   -0.4154 C.3     1  UNK111111111111111111    0.0000
      4 C4          0.2311   -1.4871    0.8657 C.2     1  UNK111111111111111111    0.0000
      5 N5         -0.8319   -0.7933    1.2421 N.am    1  UNK111111111111111111    0.0000
      6 N6          2.2292   -0.9891   -0.4150 N.4     1  UNK111111111111111111    0.0000
      7 O7          0.8077   -2.3857    1.4673 O.2     1  UNK111111111111111111    0.0000
      8 H8          0.8438    1.1991    0.1985 H       1  UNK111111111111111111    0.0000
      9 H9         -0.0452    0.9397   -1.3091 H       1  UNK111111111111111111    0.0000
     10 H10         0.3309   -1.4657   -1.2520 H       1  UNK111111111111111111    0.0000
     11 H11        -1.3406   -0.7593    2.1182 H       1  UNK111111111111111111    0.0000
     12 H12         2.4594   -1.9651   -0.2735 H       1  UNK111111111111111111    0.0000
     13 H13         2.6266   -0.6455   -1.2754 H       1  UNK111111111111111111    0.0000
     14 H14         2.5830   -0.4826    0.3838 H       1  UNK111111111111111111    0.0000
@<TRIPOS>BOND
     1     1     2    1
     2     1     5    1
     3     2     3    1
     4     2     8    1
     5     2     9    1
     6     3     4    1
     7     3     6    1
     8     3    10    1
     9     4     5   am
    10     4     7    2
    11     5    11    1
    12     6    12    1
    13     6    13    1
    14     6    14    1
