@<TRIPOS>MOLECULE
Displayed atoms
 42 45 0 0 0
SMALL
USER_CHARGES

@<TRIPOS>ATOM
      1 C1         -0.8374   -3.3534   -4.2343 C.3     1  UNK11111111111111111111    0.0000
      2 C2         -0.3716   -2.6916   -3.0748 C.3     1  UNK11111111111111111111    0.0000
      3 C3          0.4395   -1.5434   -3.2171 C.3     1  UNK11111111111111111111    0.0000
      4 C4          0.7813   -1.0617   -4.4967 C.3     1  UNK11111111111111111111    0.0000
      5 C5          0.3125   -1.7278   -5.6455 C.3     1  UNK11111111111111111111    0.0000
      6 C6         -0.4962   -2.8727   -5.5145 C.3     1  UNK11111111111111111111    0.0000
      7 C7         -0.7295   -3.1966   -1.7098 C.2     1  UNK11111111111111111111    0.0000
      8 C8         -0.1936   -2.4361   -0.5335 C.3     1  UNK11111111111111111111    0.0000
      9 C9          0.5823   -1.3381   -0.7904 C.3     1  UNK11111111111111111111    0.0000
     10 N10         0.8930   -0.8997   -2.0689 N.4     1  UNK11111111111111111111    0.0000
     11 C11        -0.4756   -2.8335    0.8603 C.1     1  UNK11111111111111111111    0.0000
     12 N12         0.0775   -2.0471    1.8007 N.2     1  UNK11111111111111111111    0.0000
     13 N13         0.8796   -0.9129    1.5115 N.2     1  UNK11111111111111111111    0.0000
     14 C14         1.1638   -0.5143    0.2658 C.1     1  UNK11111111111111111111    0.0000
     15 O15         1.8634    0.4728    0.0616 O.2     1  UNK11111111111111111111    0.0000
     16 O16        -1.1490   -3.7876    1.2335 O.2     1  UNK11111111111111111111    0.0000
     17 O17        -1.4376   -4.1998   -1.5987 O.2     1  UNK11111111111111111111    0.0000
     18 Cl18        0.7293   -1.1411   -7.2128 Cl      1  UNK11111111111111111111    0.0000
     19 C19         1.3662   -0.2246    2.7036 C.3     1  UNK11111111111111111111    0.0000
     20 C20         0.8662    1.1896    2.7036 C.3     1  UNK11111111111111111111    0.0000
     21 C21        -0.3500    1.5114    3.3037 C.3     1  UNK11111111111111111111    0.0000
     22 C22        -0.7947    2.8332    3.2914 C.3     1  UNK11111111111111111111    0.0000
     23 C23        -0.0061    3.8026    2.6756 C.3     1  UNK11111111111111111111    0.0000
     24 C24         1.1987    3.4075    2.0958 C.3     1  UNK11111111111111111111    0.0000
     25 N25         1.6438    2.1239    2.1006 N.3     1  UNK11111111111111111111    0.0000
     26 C26         2.8662   -0.2246    2.7036 C.3     1  UNK11111111111111111111    0.0000
     27 C27         3.3662   -1.6388    2.7036 C.3     1  UNK11111111111111111111    0.0000
     28 H28        -1.4590   -4.2336   -4.1440 H       1  UNK11111111111111111111    0.0000
     29 H29         1.4010   -0.1844   -4.6081 H       1  UNK11111111111111111111    0.0000
     30 H30        -0.8547   -3.3825   -6.3973 H       1  UNK11111111111111111111    0.0000
     31 H31         1.4791   -0.0714   -2.1300 H       1  UNK11111111111111111111    0.0000
     32 H32        -0.0414   -2.2131    2.7888 H       1  UNK11111111111111111111    0.0000
     33 H33         1.0029   -0.7384    3.5936 H       1  UNK11111111111111111111    0.0000
     34 H34        -0.9436    0.7401    3.7753 H       1  UNK11111111111111111111    0.0000
     35 H35        -1.7359    3.1012    3.7522 H       1  UNK11111111111111111111    0.0000
     36 H36        -0.3196    4.8373    2.6471 H       1  UNK11111111111111111111    0.0000
     37 H37         1.8319    4.1404    1.6101 H       1  UNK11111111111111111111    0.0000
     38 H38         3.2296    0.2892    3.5936 H       1  UNK11111111111111111111    0.0000
     39 H39         3.2296    0.2892    1.8137 H       1  UNK11111111111111111111    0.0000
     40 H40         4.4562   -1.6388    2.7036 H       1  UNK11111111111111111111    0.0000
     41 H41         3.0029   -2.1527    3.5936 H       1  UNK11111111111111111111    0.0000
     42 H42         3.0029   -2.1527    1.8137 H       1  UNK11111111111111111111    0.0000
@<TRIPOS>BOND
     1     1     2    1
     2     1     6    1
     3     1    28    1
     4     2     3    1
     5     2     7    1
     6     3     4    1
     7     3    10    1
     8     4     5    1
     9     4    29    1
    10     5     6    1
    11     5    18    1
    12     6    30    1
    13     7     8    1
    14     7    17    2
    15     8     9    1
    16     8    11    1
    17     9    10    1
    18     9    14    1
    19    10    31    1
    20    11    12    2
    21    11    16    2
    22    12    13    1
    23    12    32    1
    24    13    14    2
    25    13    19    1
    26    14    15    2
    27    19    20    1
    28    19    26    1
    29    19    33    1
    30    20    25    1
    31    20    21    1
    32    21    22    1
    33    21    34    1
    34    22    23    1
    35    22    35    1
    36    23    24    1
    37    23    36    1
    38    24    25    1
    39    24    37    1
    40    26    27    1
    41    26    38    1
    42    26    39    1
    43    27    40    1
    44    27    41    1
    45    27    42    1
